
#======================================================================
# CRYSTAL DATA
#----------------------------------------------------------------------
data_VESTA_phase_1

_chemical_name_common                  'XCrySDen XSF file'
_cell_length_a                         12.304900
_cell_length_b                         12.304900
_cell_length_c                         14.000000
_cell_angle_alpha                      90.000000
_cell_angle_beta                       90.000000
_cell_angle_gamma                      120.000000
_cell_volume                           1835.755578
_space_group_name_H-M_alt              'P 1'
_space_group_IT_number                 1

loop_
_space_group_symop_operation_xyz
   'x, y, z'

loop_
   _atom_site_label
   _atom_site_occupancy
   _atom_site_fract_x
   _atom_site_fract_y
   _atom_site_fract_z
   _atom_site_adp_type
   _atom_site_U_iso_or_equiv
   _atom_site_type_symbol
   C1         1.0     0.133335     0.066668     0.499998    Uiso  ? C
   C2         1.0     0.066668     0.133334     0.499998    Uiso  ? C
   C3         1.0     0.133127     0.266667     0.501165    Uiso  ? C
   C4         1.0     0.066668     0.333335     0.499998    Uiso  ? C
   C5         1.0     0.133119     0.466491     0.501235    Uiso  ? C
   C6         1.0     0.066668     0.533336     0.499998    Uiso  ? C
   C7         1.0     0.133160     0.666530     0.500764    Uiso  ? C
   C8         1.0     0.066668     0.733337     0.499998    Uiso  ? C
   C9         1.0     0.133334     0.866670     0.499998    Uiso  ? C
   C10        1.0     0.066667     0.933337     0.499998    Uiso  ? C
   C11        1.0     0.333335     0.066668     0.499998    Uiso  ? C
   C12        1.0     0.267073     0.134111     0.501780    Uiso  ? C
   C13        1.0     0.333301     0.266450     0.506929    Uiso  ? C
   C14        1.0     0.266419     0.333953     0.507066    Uiso  ? C
   C15        1.0     0.330785     0.465535     0.513969    Uiso  ? C
   C16        1.0     0.266233     0.532564     0.507293    Uiso  ? C
   C17        1.0     0.333198     0.666836     0.507137    Uiso  ? C
   C18        1.0     0.267030     0.733007     0.502703    Uiso  ? C
   C19        1.0     0.333484     0.866867     0.500758    Uiso  ? C
   C20        1.0     0.266667     0.933337     0.499998    Uiso  ? C
   C21        1.0     0.533336     0.066668     0.499998    Uiso  ? C
   C22        1.0     0.466695     0.133288     0.500430    Uiso  ? C
   C23        1.0     0.533766     0.266570     0.502391    Uiso  ? C
   C24        1.0     0.467685     0.333814     0.508024    Uiso  ? C
   C25        1.0     0.534808     0.465487     0.514636    Uiso  ? C
   C26        1.0     0.466908     0.533889     0.540874    Uiso  ? C
   C27        1.0     0.534800     0.669622     0.513261    Uiso  ? C
   C28        1.0     0.467548     0.733763     0.506967    Uiso  ? C
   C29        1.0     0.533561     0.866957     0.501049    Uiso  ? C
   C30        1.0     0.466668     0.933337     0.499998    Uiso  ? C
   C31        1.0     0.733337     0.066668     0.499998    Uiso  ? C
   C32        1.0     0.666801     0.133298     0.499814    Uiso  ? C
   C33        1.0     0.733597     0.266486     0.499907    Uiso  ? C
   C34        1.0     0.666943     0.333177     0.501260    Uiso  ? C
   C35        1.0     0.733488     0.466389     0.502088    Uiso  ? C
   C36        1.0     0.666357     0.532469     0.507910    Uiso  ? C
   C37        1.0     0.733563     0.666702     0.506979    Uiso  ? C
   C38        1.0     0.666174     0.733655     0.506814    Uiso  ? C
   C39        1.0     0.733372     0.866877     0.500926    Uiso  ? C
   C40        1.0     0.666669     0.933337     0.499998    Uiso  ? C
   C41        1.0     0.933337     0.066668     0.499998    Uiso  ? C
   C42        1.0     0.866670     0.133334     0.499998    Uiso  ? C
   C43        1.0     0.933336     0.266667     0.499998    Uiso  ? C
   C44        1.0     0.866750     0.333228     0.499818    Uiso  ? C
   C45        1.0     0.933336     0.466668     0.499998    Uiso  ? C
   C46        1.0     0.866772     0.533354     0.500335    Uiso  ? C
   C47        1.0     0.933336     0.666669     0.499998    Uiso  ? C
   C48        1.0     0.865863     0.732918     0.501805    Uiso  ? C
   C49        1.0     0.933336     0.866670     0.499998    Uiso  ? C
   C50        1.0     0.866669     0.933337     0.499998    Uiso  ? C
   O1         1.0     0.470896     0.542768     0.648161    Uiso  ? O
   H1         1.0     0.439218     0.457563     0.672844    Uiso  ? H
